omf/scratch/RONM/ieee8500-unbal_no_fuses.clean_reduced.good_coords3.dss
clear
new object=circuit.ieee8500u_fuseless
edit object=vsource.source bus1=sourcebus.1.2.3 pu=1.05 r1=0 x1=0.001 r0=0 x0=0.001
new object=linecode.1ph-x4_acsrx4_acsr nphases=1 units=km rmatrix=[1.67466000] xmatrix=[0.93456000] cmatrix=[6.32285000]
new object=linecode.1ph-xx4_acsr4_acsr nphases=1 units=km rmatrix=[1.67466000] xmatrix=[0.93456000] cmatrix=[6.32285000]
new object=linecode.1ph-x2_acsrx2_acsr nphases=1 units=km rmatrix=[1.12230000] xmatrix=[0.89636500] cmatrix=[6.49582000]
new object=linecode.1ph-x4_acsrx4_wpal nphases=1 units=km rmatrix=[1.67723000] xmatrix=[0.93241100] cmatrix=[6.32285000]
new object=linecode.3ph_h-4_acsr4_acsr4_acsr4_acsr nphases=3 units=km rmatrix=[1.68340000,0.13832400,0.14266900|0.13832400,1.67686000,0.13929400|0.14266900,0.13929400,1.68543000] xmatrix=[0.92730000,0.43262300,0.41225300|0.43262300,0.93272800,0.45046900|0.41225300,0.45046900,0.92563700] cmatrix=[7.60098000,-1.99751000,-1.66797000|-1.99751000,7.88811000,-2.32489000|-1.66797000,-2.32489000,7.78037000]
new object=linecode.3ph_h-2/0_acsr2/0_acsr2/0_acsr2_acsr nphases=3 units=km rmatrix=[0.66087000,0.13749900,0.14206600|0.13749900,0.65399900,0.13851800|0.14206600,0.13851800,0.66300700] xmatrix=[0.86994700,0.38857900,0.36611500|0.38857900,0.87852800,0.40595300|0.36611500,0.40595300,0.86730000] cmatrix=[8.34520000,-2.31601000,-1.91256000|-2.31601000,8.72099000,-2.71715000|-1.91256000,-2.71715000,8.57671000]
new object=linecode.1ph-4_wpalxx2_wpal nphases=1 units=km rmatrix=[1.63092000] xmatrix=[0.86122100] cmatrix=[6.32285000]
new object=linecode.3ph_h-4_acsr2_acsr2_acsr4_wpal nphases=3 units=km rmatrix=[1.68626000,0.14107800,0.14556600|0.14107800,1.12824000,0.14208000|0.14556600,0.14208000,1.13710000] xmatrix=[0.92496600,0.43035900,0.40989800|0.43035900,0.93376500,0.44818500|0.40989800,0.44818500,0.92649500] cmatrix=[7.63018000,-2.04889000,-1.70374000|-2.04889000,8.18434000,-2.48649000|-1.70374000,-2.48649000,8.06911000]
new object=linecode.1ph-4_acsrxx4_acsr nphases=1 units=km rmatrix=[1.67466000] xmatrix=[0.93456000] cmatrix=[6.32285000]
new object=linecode.3ph_h-4_acsr4_acsr4_acsr4_wpal nphases=3 units=km rmatrix=[1.68626000,0.14107800,0.14556600|0.14107800,1.67950000,0.14208000|0.14556600,0.14208000,1.68836000] xmatrix=[0.92496600,0.43035900,0.40989800|0.43035900,0.93053100,0.44818500|0.40989800,0.44818500,0.92326100] cmatrix=[7.60098000,-1.99751000,-1.66797000|-1.99751000,7.88811000,-2.32489000|-1.66797000,-2.32489000,7.78037000]
new object=linecode.1ph-2_acsrxx2_acsr nphases=1 units=km rmatrix=[1.12230000] xmatrix=[0.89636500] cmatrix=[6.49582000]
new object=linecode.1ph-4_wpalxx4_acsr nphases=1 units=km rmatrix=[1.63124000] xmatrix=[0.89897900] cmatrix=[6.32285000]
new object=linecode.3ph_h-397_acsr397_acsr397_acsr2/0_acsr nphases=3 units=km rmatrix=[0.27001900,0.10995100,0.11353800|0.10995100,0.26463400,0.11074700|0.11353800,0.11074700,0.27169800] xmatrix=[0.69597400,0.33351000,0.30827100|0.33351000,0.70872900,0.35025900|0.30827100,0.35025900,0.69202100] cmatrix=[9.13606000,-2.66777000,-2.17646000|-2.66777000,9.62226000,-3.15664000|-2.17646000,-3.15664000,9.43197000]
new object=linecode.1ph-2_acsrxx4_acsr nphases=1 units=km rmatrix=[1.12339000] xmatrix=[0.93779400] cmatrix=[6.49582000]
new object=linecode.1ph-xx2_acsr2_acsr nphases=1 units=km rmatrix=[1.12230000] xmatrix=[0.89636500] cmatrix=[6.49582000]
new object=linecode.1ph-xx4_wpal4_wpal nphases=1 units=km rmatrix=[1.63382000] xmatrix=[0.89683000] cmatrix=[6.32285000]
new object=linecode.1ph-x4_wpalx4_wpal nphases=1 units=km rmatrix=[1.63382000] xmatrix=[0.89683000] cmatrix=[6.32285000]
new object=linecode.1ph-xx4_wpal4_acsr nphases=1 units=km rmatrix=[1.63124000] xmatrix=[0.89897900] cmatrix=[6.32285000]
new object=linecode.1ph-x2_acsrx1/0_tpx nphases=1 units=km rmatrix=[1.03207000] xmatrix=[0.80143600] cmatrix=[6.49582000]
new object=linecode.1ph-4_acsrxx4_wpal nphases=1 units=km rmatrix=[1.67723000] xmatrix=[0.93241100] cmatrix=[6.32285000]
new object=linecode.1ph-xx4_acsr1/0_tpx nphases=1 units=km rmatrix=[1.58334000] xmatrix=[0.79820300] cmatrix=[6.32285000]
new object=linecode.3ph_h-4_wpal4_wpal4_wpal4_acsr nphases=3 units=km rmatrix=[1.63999000,0.13832400,0.14266900|0.13832400,1.63344000,0.13929400|0.14266900,0.13929400,1.64202000] xmatrix=[0.89171900,0.43262300,0.41225300|0.43262300,0.89714600,0.45046900|0.41225300,0.45046900,0.89005600] cmatrix=[7.60098000,-1.99751000,-1.66797000|-1.99751000,7.88811000,-2.32489000|-1.66797000,-2.32489000,7.78037000]
new object=linecode.1ph-x4_wpalx4_acsr nphases=1 units=km rmatrix=[1.63124000] xmatrix=[0.89897900] cmatrix=[6.32285000]
new object=linecode.1ph-4_wpalxx4_wpal nphases=1 units=km rmatrix=[1.63382000] xmatrix=[0.89683000] cmatrix=[6.32285000]
new object=linecode.3ph_h-4_wpal4_wpal4_wpal4_wpal nphases=3 units=km rmatrix=[1.64285000,0.14107800,0.14556600|0.14107800,1.63609000,0.14208000|0.14556600,0.14208000,1.64495000] xmatrix=[0.88938500,0.43035900,0.40989800|0.43035900,0.89495000,0.44818500|0.40989800,0.44818500,0.88768000] cmatrix=[7.60098000,-1.99751000,-1.66797000|-1.99751000,7.88811000,-2.32489000|-1.66797000,-2.32489000,7.78037000]
new object=linecode.3ph_h-2_acsr2_acsr2_acsr2_acsr nphases=3 units=km rmatrix=[1.13148000,0.13749900,0.14206600|0.13749900,1.12461000,0.13851800|0.14206600,0.13851800,1.13362000] xmatrix=[0.88488600,0.38857900,0.36611500|0.38857900,0.89346700,0.40595300|0.36611500,0.40595300,0.88223900] cmatrix=[7.88350000,-2.11691000,-1.76030000|-2.11691000,8.20260000,-2.47130000|-1.76030000,-2.47130000,8.08174000]
new object=linecode.1ph-4_acsrxx1/0_tpx nphases=1 units=km rmatrix=[1.58334000] xmatrix=[0.79820300] cmatrix=[6.32285000]
new object=linecode.3ph_h-4_acsr2_acsr2_acsr4_acsr nphases=3 units=km rmatrix=[1.68340000,0.13832400,0.14266900|0.13832400,1.12559000,0.13929400|0.14266900,0.13929400,1.13417000] xmatrix=[0.92730000,0.43262300,0.41225300|0.43262300,0.93596200,0.45046900|0.41225300,0.45046900,0.92887100] cmatrix=[7.63018000,-2.04889000,-1.70374000|-2.04889000,8.18434000,-2.48649000|-1.70374000,-2.48649000,8.06911000]
new object=linecode.1ph-xx4_acsr4_wpal nphases=1 units=km rmatrix=[1.67723000] xmatrix=[0.93241100] cmatrix=[6.32285000]
new object=linecode.1ph-4_acsrxx2_acsr nphases=1 units=km rmatrix=[1.67357000] xmatrix=[0.89313100] cmatrix=[6.32285000]
new object=linecode.1ph-x4_wpalx1/0_tpx nphases=1 units=km rmatrix=[1.53992000] xmatrix=[0.76262100] cmatrix=[6.32285000]
new object=linecode.1ph-xx4_acsr1/0_acsr nphases=1 units=km rmatrix=[1.65698000] xmatrix=[0.85526900] cmatrix=[6.32285000]
new object=linecode.1ph-2_acsrxx4_wpal nphases=1 units=km rmatrix=[1.12597000] xmatrix=[0.93564500] cmatrix=[6.49582000]
new object=linecode.1ph-xx2/0_acsr1/0_tpx nphases=1 units=km rmatrix=[0.56146100] xmatrix=[0.78649800] cmatrix=[6.76998000]
new object=linecode.2ph_h-2_acsrx2_acsr2_acsr nphases=2 units=km rmatrix=[1.13148000,0.14206600|0.14206600,1.13362000] xmatrix=[0.88488600,0.36611500|0.36611500,0.88223900] cmatrix=[7.33718000,-2.39809000|-2.39809000,7.33718000]
new object=linecode.1ph-2_wpalxx2_wpal nphases=1 units=km rmatrix=[1.16232000] xmatrix=[0.90003600] cmatrix=[6.49582000]
new object=linecode.1ph-2_acsrxx4/0_tpx nphases=1 units=km rmatrix=[1.07236000] xmatrix=[0.80797800] cmatrix=[6.49582000]
new object=linecode.3ph_h-397_acsr397_acsr397_acsr4_wpal nphases=3 units=km rmatrix=[0.30183800,0.14107800,0.14556600|0.14107800,0.29507800,0.14208000|0.14556600,0.14208000,0.30393600] xmatrix=[0.79648400,0.43035900,0.40989800|0.43035900,0.80204900,0.44818500|0.40989800,0.44818500,0.79477800] cmatrix=[9.13606000,-2.66777000,-2.17646000|-2.66777000,9.62226000,-3.15664000|-2.17646000,-3.15664000,9.43197000]
new object=linecode.3ph_h-397_acsr397_acsr397_acsr397_acsr nphases=3 units=km rmatrix=[0.21416200,0.05579570,0.05716360|0.05579570,0.21213100,0.05608920|0.05716360,0.05608920,0.21480100] xmatrix=[0.63495700,0.27487000,0.24652800|0.27487000,0.65237500,0.29092000|0.24652800,0.29092000,0.62954400] cmatrix=[9.13606000,-2.66777000,-2.17646000|-2.66777000,9.62226000,-3.15664000|-2.17646000,-3.15664000,9.43197000]
new object=linecode.1ph-xx2_acsr1/0_tpx nphases=1 units=km rmatrix=[1.03207000] xmatrix=[0.80143600] cmatrix=[6.49582000]
new object=linecode.1ph-x4_acsrx2_wpal nphases=1 units=km rmatrix=[1.67434000] xmatrix=[0.89680200] cmatrix=[6.32285000]
new object=linecode.1ph-x4_acsrx4_dpx nphases=1 units=km rmatrix=[1.67730000] xmatrix=[0.93205900] cmatrix=[6.32285000]
new object=linecode.3ph_h-2_acsr2_acsr4_acsr4_acsr nphases=3 units=km rmatrix=[1.13214000,0.13832400,0.14266900|0.13832400,1.12559000,0.13929400|0.14266900,0.13929400,1.68543000] xmatrix=[0.93053400,0.43262300,0.41225300|0.43262300,0.93596200,0.45046900|0.41225300,0.45046900,0.92563700] cmatrix=[7.87088000,-2.13463000,-1.70236000|-2.13463000,8.17773000,-2.38996000|-1.70236000,-2.38996000,7.81573000]
new object=linecode.1ph-4_wpalxx1/0_tpx nphases=1 units=km rmatrix=[1.53992000] xmatrix=[0.76262100] cmatrix=[6.32285000]
new object=linecode.1ph-x4_acsrx1/0_tpx nphases=1 units=km rmatrix=[1.58334000] xmatrix=[0.79820300] cmatrix=[6.32285000]
new object=linecode.1ph-4_acsrxx1/0_3w_cs nphases=1 units=km rmatrix=[1.66186000] xmatrix=[0.84405100] cmatrix=[6.32285000]
new object=linecode.1ph-x2_acsrx4_acsr nphases=1 units=km rmatrix=[1.12339000] xmatrix=[0.93779400] cmatrix=[6.49582000]
new object=linecode.1ph-x2_acsrx1/0_3w_cs nphases=1 units=km rmatrix=[1.11059000] xmatrix=[0.84728500] cmatrix=[6.49582000]
new object=linecode.3ph_h-2/0_acsr2/0_acsr2/0_acsr2/0_acsr nphases=3 units=km rmatrix=[0.63257000,0.10995100,0.11353800|0.10995100,0.62718400,0.11074700|0.11353800,0.11074700,0.63424900] xmatrix=[0.81275200,0.33351000,0.30827100|0.33351000,0.82550700,0.35025900|0.30827100,0.35025900,0.80879900] cmatrix=[8.34520000,-2.31601000,-1.91256000|-2.31601000,8.72099000,-2.71715000|-1.91256000,-2.71715000,8.57671000]
new object=linecode.1ph-2_acsrxx1/0_tpx nphases=1 units=km rmatrix=[1.03207000] xmatrix=[0.80143600] cmatrix=[6.49582000]
new object=linecode.3ph_h-4_wpal4_wpal4_wpal1/0_tpx nphases=3 units=km rmatrix=[1.54119000,0.04235820,0.04301700|0.04235820,1.54023000,0.04249210|0.04301700,0.04249210,1.54150000] xmatrix=[0.74032200,0.28695500,0.25910600|0.28695500,0.75699400,0.30311700|0.25910600,0.30311700,0.73514000] cmatrix=[7.60098000,-1.99751000,-1.66797000|-1.99751000,7.88811000,-2.32489000|-1.66797000,-2.32489000,7.78037000]
new object=linecode.1ph-x4_wpalx2_acsr nphases=1 units=km rmatrix=[1.63015000] xmatrix=[0.85755000] cmatrix=[6.32285000]
new object=linecode.3ph_h-2/0_acsr2/0_acsr2/0_acsr2_wpal nphases=3 units=km rmatrix=[0.66167200,0.13829100,0.14287200|0.13829100,0.65477900,0.13931300|0.14287200,0.13931300,0.66381600] xmatrix=[0.87400100,0.39248800,0.37021400|0.39248800,0.88229600,0.40990500|0.37021400,0.40990500,0.87144400] cmatrix=[8.34520000,-2.31601000,-1.91256000|-2.31601000,8.72099000,-2.71715000|-1.91256000,-2.71715000,8.57671000]
new object=linecode.1ph-xx4_acsr2_acsr nphases=1 units=km rmatrix=[1.67357000] xmatrix=[0.89313100] cmatrix=[6.32285000]
new object=linecode.1ph-x4_acsrx4_tpx nphases=1 units=km rmatrix=[1.67730000] xmatrix=[0.93205900] cmatrix=[6.32285000]
new object=linecode.3ph_h-4_acsr4_acsr4_acsr4_tpx nphases=3 units=km rmatrix=[1.68634000,0.14115300,0.14564700|0.14115300,1.67957000,0.14215700|0.14564700,0.14215700,1.68844000] xmatrix=[0.92458000,0.42998600,0.40950800|0.42998600,0.93017100,0.44780800|0.40950800,0.44780800,0.92286600] cmatrix=[7.60098000,-1.99751000,-1.66797000|-1.99751000,7.88811000,-2.32489000|-1.66797000,-2.32489000,7.78037000]
new object=linecode.1ph-4_acsrxx6_wpal nphases=1 units=km rmatrix=[1.66227000] xmatrix=[0.96720200] cmatrix=[6.32285000]
new object=linecode.1ph-xx4_acsr4_tpx nphases=1 units=km rmatrix=[1.67730000] xmatrix=[0.93205900] cmatrix=[6.32285000]
new object=linecode.3ph_h-397_acsr397_acsr397_acsr2/0_wpal nphases=3 units=km rmatrix=[0.27001900,0.10995100,0.11353800|0.10995100,0.26463400,0.11074700|0.11353800,0.11074700,0.27169800] xmatrix=[0.69597400,0.33351000,0.30827100|0.33351000,0.70872900,0.35025900|0.30827100,0.35025900,0.69202100] cmatrix=[9.13606000,-2.66777000,-2.17646000|-2.66777000,9.62226000,-3.15664000|-2.17646000,-3.15664000,9.43197000]
new object=linecode.1ph-2/0_acsrxx2_acsr nphases=1 units=km rmatrix=[0.65169100] xmatrix=[0.88142600] cmatrix=[6.76998000]
new object=linecode.3ph_h-2/0_acsr2/0_acsr2/0_acsr4_acsr nphases=3 units=km rmatrix=[0.66152500,0.13832400,0.14266900|0.13832400,0.65498100,0.13929400|0.14266900,0.13929400,0.66355500] xmatrix=[0.91559500,0.43262300,0.41225300|0.43262300,0.92102300,0.45046900|0.41225300,0.45046900,0.91393200] cmatrix=[8.34520000,-2.31601000,-1.91256000|-2.31601000,8.72099000,-2.71715000|-1.91256000,-2.71715000,8.57671000]
new object=linecode.1ph-xx4_wpal1/0_tpx nphases=1 units=km rmatrix=[1.53992000] xmatrix=[0.76262100] cmatrix=[6.32285000]
new object=linecode.1ph-xx6_wpal6_wpal nphases=1 units=km rmatrix=[2.50305000] xmatrix=[0.97492200] cmatrix=[6.15960000]
new object=linecode.1ph-x2_acsrx4_tpx nphases=1 units=km rmatrix=[1.12603000] xmatrix=[0.93529300] cmatrix=[6.49582000]
new object=linecode.3ph_h-4_acsr4_acsr4_acsr2_wpal nphases=3 units=km rmatrix=[1.68355000,0.13829100,0.14287200|0.13829100,1.67665000,0.13931300|0.14287200,0.13931300,1.68569000] xmatrix=[0.88570600,0.39248800,0.37021400|0.39248800,0.89400100,0.40990500|0.37021400,0.40990500,0.88314900] cmatrix=[7.60098000,-1.99751000,-1.66797000|-1.99751000,7.88811000,-2.32489000|-1.66797000,-2.32489000,7.78037000]
new object=linecode.1ph-x4_acsrx1/0_3w_cs nphases=1 units=km rmatrix=[1.66186000] xmatrix=[0.84405100] cmatrix=[6.32285000]
new object=linecode.1ph-xx2_acsr4_dpx nphases=1 units=km rmatrix=[1.12603000] xmatrix=[0.93529300] cmatrix=[6.49582000]
new object=linecode.1p_1/0_axnj_db nphases=1 r1=0.95896 x1=0.54128 r0=0.95896 x0=0.54128 c1=25.923 c0=25.923 units=km basefreq=60 normamps=220 emergamps=220 faultrate=0.1 pctperm=20 repair=3
new object=linecode.3p_1/0_axnj_db nphases=3 r1=0.55116 x1=0.20076 r0=1.3504 x0=0.42688 c1=48.666 c0=48.666 units=km basefreq=60 normamps=190 emergamps=190 faultrate=0.1 pctperm=20 repair=3
new object=linecode.750_triplex nphases=2 units=kft rmatrix=[0.04974733,0.02342157|0.02342157,0.04974733] xmatrix=[0.02782436,0.00669472|0.00669472,0.02782436] cmatrix=[3.00000000,-2.40000000|-2.40000000,3.00000000] normamps=580 emergamps=725
new object=linecode.4/0triplex nphases=2 units=kft rmatrix=[0.40995115,0.11809509|0.11809509,0.40995115] xmatrix=[0.16681819,0.12759250|0.12759250,0.16681819] cmatrix=[3.00000000,-2.40000000|-2.40000000,3.00000000] normamps=156 emergamps=195
new object=loadshape.default npts=24 interval=1 useactual=n mult=[0.677,0.6256,0.6087,0.5833,0.58028,0.6025,0.657,0.7477,0.832,0.88,0.94,0.989,0.985,0.98,0.9898,0.999,1,0.958,0.936,0.913,0.876,0.876,0.828,0.756]
new object=growthshape.default npts=2 year=[1,20] mult=[1.025,1.025]
new object=tcc_curve.a npts=5 c_array=[1,2.5,4.5,8,14] t_array=[0.15,0.07,0.05,0.045,0.045]
new object=tcc_curve.d npts=5 c_array=[1,2.5,4.5,8,14] t_array=[6,0.7,0.2,0.06,0.02]
new object=tcc_curve.tlink npts=7 c_array=[2,2.1,3,4,6,22,50] t_array=[300,100,10.1,4,1.4,0.1,0.02]
new object=tcc_curve.klink npts=6 c_array=[2,2.2,3,4,6,30] t_array=[300,20,4,1.3,0.41,0.02]
new object=tcc_curve.uv1547 npts=2 c_array=[0.5,0.9] t_array=[0.166,2]
new object=tcc_curve.ov1547 npts=2 c_array=[1.1,1.2] t_array=[2,0.166]
new object=tcc_curve.mod_inv npts=15 c_array=[1.1,1.3,1.5,2,3,4,5,6,7,8,9,10,20,50,100] t_array=[27.1053,9.9029,6.439,3.8032,2.4322,1.9458,1.6883,1.5255,1.4117,1.3267,1.2604,1.2068,0.9481,0.7468,0.6478]
new object=tcc_curve.very_inv npts=15 c_array=[1.1,1.3,1.5,2,3,4,5,6,7,8,9,10,20,50,100] t_array=[93.872,28.9113,16.179,7.0277,2.9423,1.7983,1.3081,1.0513,0.8995,0.8023,0.7361,0.6891,0.5401,0.4988,0.493]
new object=tcc_curve.ext_inv npts=15 c_array=[1.1,1.3,1.5,2,3,4,5,6,7,8,9,10,20,50,100] t_array=[134.407,40.9913,22.6817,9.5217,3.6467,2.0017,1.2967,0.9274,0.7092,0.5693,0.4742,0.4065,0.1924,0.133,0.1245]
new object=tcc_curve.definite npts=3 c_array=[1,1.001,100] t_array=[300,1,1]
new object=spectrum.default numharm=7 harmonic=[1,3,5,7,9,11,13] %mag=[100,33,20,14,11,9,7] angle=[0,0,0,0,0,0,0]
new object=spectrum.defaultload numharm=7 harmonic=[1,3,5,7,9,11,13] %mag=[100,1.5,20,14,1,9,7] angle=[0,180,180,180,180,180,180]
new object=spectrum.defaultgen numharm=7 harmonic=[1,3,5,7,9,11,13] %mag=[100,5,3,1.5,1,0.7,0.5] angle=[0,0,0,0,0,0,0]
new object=spectrum.defaultvsource numharm=1 harmonic=[1] %mag=[100] angle=[0]
new object=spectrum.linear numharm=1 harmonic=[1] %mag=[100] angle=[0]
new object=spectrum.pwm6 numharm=13 harmonic=[1,3,5,7,9,11,13,15,17,19,21,23,25] %mag=[100,4.4,76.5,62.7,2.9,24.8,12.7,0.5,7.1,8.4,0.9,4.4,3.3] angle=[-103,-5,28,-180,-33,-59,79,36,-253,-124,3,-30,86]
new object=spectrum.dc6 numharm=10 harmonic=[1,3,5,7,9,11,13,15,17,19] %mag=[100,1.2,33.6,1.6,0.4,8.7,1.2,0.3,4.5,1.3] angle=[-75,28,156,29,-91,49,54,148,-57,-46]
new object=line.ln5815900-1 bus1=e192860.1.2.3 bus2=l2801909.1.2.3 length=0.04484562 units=km linecode=3ph_h-397_acsr397_acsr397_acsr397_acsr seasons=1 ratings=[400] normamps=400 emergamps=600
new object=relay.subbreaker monitoredobj=line.ln5815900-1 monitoredterm=1 phasecurve=d groundcurve=a phasetrip=600 groundtrip=600
new object=line.ln5742828-2 bus1=l2801909.1.2.3 bus2=m1209805.1.2.3 length=0.34298585000000004 units=km linecode=3ph_h-397_acsr397_acsr397_acsr397_acsr seasons=1 ratings=[400] normamps=400 emergamps=600
new object=line.ln5775442-1 bus1=m1209805.1.2.3 bus2=l2823592.1.2.3 length=0.1055602 units=km linecode=3ph_h-397_acsr397_acsr397_acsr2/0_acsr seasons=1 ratings=[400] normamps=400 emergamps=600
new object=line.cap_1a bus1=l2823592.1 bus2=l2823592_cap.1 length=0.001 units=none r1=1 r0=1 x1=1 x0=1 c1=0 c0=0 phases=1
new object=line.ln5513564-2 bus1=l2823592_cap.1.2.3 bus2=r20185.1.2.3 length=0.0451087 units=km linecode=3ph_h-397_acsr397_acsr397_acsr2/0_acsr seasons=1 ratings=[400] normamps=400 emergamps=600
new object=line.ln5513564-1 bus1=r20185.1.2.3 bus2=d5513564-1_int.1.2.3 length=0.02128046 units=km linecode=3ph_h-397_acsr397_acsr397_acsr2/0_acsr seasons=1 ratings=[400] normamps=400 emergamps=600
new object=line.xj171_48332_sw bus1=d5513564-1_int.1.2.3 bus2=e192201.1.2.3 switch=true r1=1 x1=1 r0=1 x0=1 length=0.001
new object=line.ln6321409-1 bus1=e192201.1.2.3 bus2=m1209800.1.2.3 length=0.05568214 units=km linecode=3ph_h-397_acsr397_acsr397_acsr2/0_acsr seasons=1 ratings=[400] normamps=400 emergamps=600
new object=line.ln6198133-1 bus1=m1209800.3 bus2=l2839332.3 length=0.05478473 units=km linecode=1ph-xx4_acsr4_acsr seasons=1 ratings=[400] normamps=400 emergamps=600
new object=line.ln5654466-1 bus1=m1209800.1.2.3 bus2=m1209791.1.2.3 length=0.14200453 units=km linecode=3ph_h-397_acsr397_acsr397_acsr2/0_acsr seasons=1 ratings=[400] normamps=400 emergamps=600
new object=line.ln5686244-1 bus1=m1209791.1 bus2=l2936270.1 length=0.048251291 units=km linecode=1ph-4_acsrxx1/0_3w_cs seasons=1 ratings=[400] normamps=400 emergamps=600
new object=line.ln6351517-1 bus1=l2936270.1 bus2=l3086078.1 length=0.06059857 units=km linecode=1ph-4_acsrxx4_acsr seasons=1 ratings=[400] normamps=400 emergamps=600
new object=line.ln6015889-3 bus1=l3086078.1 bus2=m1209782.1 length=0.11789414 units=km linecode=1ph-4_acsrxx4_acsr seasons=1 ratings=[400] normamps=400 emergamps=600
new object=line.ln5927382-1 bus1=m1209782.1 bus2=l3217056.1 length=0.073677 units=km linecode=1ph-2_acsrxx2_acsr seasons=1 ratings=[400] normamps=400 emergamps=600
new object=line.ln6048633-1 bus1=m1209782.1 bus2=l3217057.1 length=0.03875238 units=km linecode=1ph-4_acsrxx4_acsr seasons=1 ratings=[400] normamps=400 emergamps=600
new object=line.ln5654472-1 bus1=m1209791.1.2.3 bus2=m1209788.1.2.3 length=0.11435863 units=km linecode=3ph_h-397_acsr397_acsr397_acsr2/0_acsr seasons=1 ratings=[400] normamps=400 emergamps=600
new object=line.ln6351519-1 bus1=m1209788.1.2.3 bus2=l2823611.1.2.3 length=0.2315638 units=km linecode=3ph_h-397_acsr397_acsr397_acsr2/0_acsr seasons=1 ratings=[400] normamps=400 emergamps=600
new object=line.ln5473440-1 bus1=l2823611.1.2.3 bus2=l3030204.1.2.3 length=0.08348992 units=km linecode=3ph_h-397_acsr397_acsr397_acsr2/0_acsr seasons=1 ratings=[400] normamps=400 emergamps=600
new object=line.ln5866268-1 bus1=l3030204.1.2.3 bus2=m3032980.1.2.3 length=0.15951426 units=km linecode=3ph_h-397_acsr397_acsr397_acsr2/0_acsr seasons=1 ratings=[400] normamps=400 emergamps=600
new object=line.ln6504020-2 bus1=m3032980.1.2.3 bus2=m1166366.1.2.3 length=0.565059 units=km linecode=3ph_h-397_acsr397_acsr397_acsr2/0_acsr seasons=1 ratings=[400] normamps=400 emergamps=600
new object=line.ln6140925-1 bus1=m1166366.3 bus2=m1166370.3 length=0.017798298 units=km linecode=1ph-xx4_wpal4_wpal seasons=1 ratings=[400] normamps=400 emergamps=600
new object=line.ln5927421-1 bus1=m1166370.3 bus2=l3030205.3 length=0.18366055 units=km linecode=1ph-xx2_acsr2_acsr seasons=1 ratings=[400] normamps=400 emergamps=600
new object=line.ln6261048-1 bus1=m1166370.3 bus2=l3067506.3 length=0.2459594 units=km linecode=1ph-xx4_wpal4_wpal seasons=1 ratings=[400] normamps=400 emergamps=600
new object=line.ln5866266-1 bus1=l3067506.3 bus2=m1166386.3 length=0.05330657 units=km linecode=1ph-xx4_acsr4_acsr seasons=1 ratings=[400] normamps=400 emergamps=600
new object=line.ln6261020-1 bus1=m1166386.3 bus2=l2898515.3 length=0.2000023 units=km linecode=1ph-xx4_acsr4_acsr seasons=1 ratings=[400] normamps=400 emergamps=600
new object=line.ln6018326-1 bus1=l2898515.3 bus2=m1166387.3 length=0.05960587 units=km linecode=1ph-xx4_acsr4_acsr seasons=1 ratings=[400] normamps=400 emergamps=600
new object=line.ln5624375-1 bus1=m1166387.3 bus2=l3198347.3 length=0.116852 units=km linecode=1ph-xx4_acsr4_acsr seasons=1 ratings=[400] normamps=400 emergamps=600
new object=line.ln5624374-1 bus1=m1166387.3 bus2=l3048946.3 length=0.08543306 units=km linecode=1ph-xx4_acsr4_acsr seasons=1 ratings=[400] normamps=400 emergamps=600
new object=line.ln6381856-1 bus1=m1166386.3 bus2=l3048966.3 length=0.0631077 units=km linecode=1ph-xx4_acsr4_acsr seasons=1 ratings=[400] normamps=400 emergamps=600
new object=line.ln5957526-1 bus1=m1166366.1.2.3 bus2=m1166368.1.2.3 length=0.04116818 units=km linecode=3ph_h-397_acsr397_acsr397_acsr2/0_acsr seasons=1 ratings=[400] normamps=400 emergamps=600
new object=line.ln5988007-1 bus1=m1166368.1 bus2=l3086098.1 length=0.04940539 units=km linecode=1ph-2_acsrxx2_acsr seasons=1 ratings=[400] normamps=400 emergamps=600
new object=line.ln5715052-1 bus1=m1166368.1.2.3 bus2=l2973833.1.2.3 length=0.1050882 units=km linecode=3ph_h-397_acsr397_acsr397_acsr2/0_acsr seasons=1 ratings=[400] normamps=400 emergamps=600
new object=line.ln5866308-1 bus1=l2973833.1.2.3 bus2=m1166373.1.2.3 length=0.04140121 units=km linecode=3ph_h-397_acsr397_acsr397_acsr2/0_acsr seasons=1 ratings=[400] normamps=400 emergamps=600
new object=line.ln6412354-1 bus1=m1166373.1.2.3 bus2=l2786266.1.2.3 length=0.07699418899999999 units=km linecode=3ph_h-397_acsr397_acsr397_acsr2/0_acsr seasons=1 ratings=[400] normamps=400 emergamps=600
new object=line.ln5745355-1 bus1=l2786266.1.2.3 bus2=m1166375.1.2.3 length=0.03456459 units=km linecode=3ph_h-397_acsr397_acsr397_acsr2/0_acsr seasons=1 ratings=[400] normamps=400 emergamps=600
new object=line.ln5589096-1 bus1=m1166375.1 bus2=l2917333.1 length=0.093541518 units=km linecode=1ph-2_acsrxx2_acsr seasons=1 ratings=[400] normamps=400 emergamps=600
new object=line.ln5896834-1 bus1=m1166375.1.2.3 bus2=l2842383.1.2.3 length=0.09683365 units=km linecode=3ph_h-397_acsr397_acsr397_acsr2/0_acsr seasons=1 ratings=[400] normamps=400 emergamps=600
new object=line.ln6023352-1 bus1=l2842383.1.2.3 bus2=d6023352-1_int.1.2.3 length=0.05295857 units=km linecode=3ph_h-397_acsr397_acsr397_acsr2/0_acsr seasons=1 ratings=[400] normamps=400 emergamps=600
new object=line.l9407_48332_sw bus1=d6023352-1_int.1.2.3 bus2=e184626.1.2.3 switch=true r1=1 x1=1 r0=1 x0=1 length=0.001
new object=line.ln6326450-1 bus1=e184626.1.2.3 bus2=l2842384.1.2.3 length=0.04932447399999999 units=km linecode=3ph_h-397_acsr397_acsr397_acsr2/0_acsr seasons=1 ratings=[400] normamps=400 emergamps=600
new object=line.ln5805762-1 bus1=l2842384.1.2.3 bus2=m1149236.1.2.3 length=0.06777269 units=km linecode=3ph_h-397_acsr397_acsr397_acsr2/0_acsr seasons=1 ratings=[400] normamps=400 emergamps=600
new object=line.ln6232159-1 bus1=m1149236.1 bus2=l2805034.1 length=0.070447787 units=km linecode=1ph-4_acsrxx4_acsr seasons=1 ratings=[400] normamps=400 emergamps=600
new object=line.ln6018336-1 bus1=m1149236.1.2.3 bus2=m1149235.1.2.3 length=0.04155912 units=km linecode=3ph_h-397_acsr397_acsr397_acsr2/0_acsr seasons=1 ratings=[400] normamps=400 emergamps=600
new object=line.ln5563942-4 bus1=m1149235.1.2.3 bus2=d5563942-4_int.1.2.3 length=0.03113334 units=km linecode=3ph_h-397_acsr397_acsr397_acsr2/0_acsr seasons=1 ratings=[400] normamps=400 emergamps=600
new object=line.2002200004868472_sw bus1=d5563942-4_int.1.2.3 bus2=q16483.1.2.3 switch=true r1=1 x1=1 r0=1 x0=1 length=0.001
new object=line.cap_2a bus1=q16483.1 bus2=q16483_cap.1 length=0.001 units=none r1=1 r0=1 x1=1 x0=1 c1=0 c0=0 phases=1
new object=line.ln5563942-5 bus1=q16483_cap.1.2.3 bus2=r42247.1.2.3 length=0.005259517 units=km linecode=3ph_h-397_acsr397_acsr397_acsr2/0_acsr seasons=1 ratings=[400] normamps=400 emergamps=600
new object=line.ln5563942-3 bus1=r42247.1.2.3 bus2=l3048965.1.2.3 length=0.13714404 units=km linecode=3ph_h-397_acsr397_acsr397_acsr2/0_acsr seasons=1 ratings=[400] normamps=400 emergamps=600
new object=line.ln5805761-1 bus1=l3048965.1.2.3 bus2=m1142843.1.2.3 length=0.05134039 units=km linecode=3ph_h-397_acsr397_acsr397_acsr4_wpal seasons=1 ratings=[400] normamps=400 emergamps=600
new object=line.ln5799561-1 bus1=m1142843.1.2.3 bus2=l3081380.1.2.3 length=0.110589 units=km linecode=3ph_h-397_acsr397_acsr397_acsr2/0_acsr seasons=1 ratings=[400] normamps=400 emergamps=600
new object=line.ln5799561-2 bus1=l3081380.1.2.3 bus2=d5799561-2_int.1.2.3 length=0.09212063 units=km linecode=3ph_h-397_acsr397_acsr397_acsr2/0_acsr seasons=1 ratings=[400] normamps=400 emergamps=600
new object=line.a8611_48332_sw bus1=d5799561-2_int.1.2.3 bus2=e193509.1.2.3 switch=true r1=1 x1=1 r0=1 x0=1 length=0.001
new object=line.ln5594236-1 bus1=e193509.1.2.3 bus2=m1142839.1.2.3 length=0.06240823 units=km linecode=3ph_h-397_acsr397_acsr397_acsr2/0_acsr seasons=1 ratings=[400] normamps=400 emergamps=600
new object=line.ln5866260-1 bus1=m1142839.3 bus2=l3067507.3 length=0.04205145 units=km linecode=1ph-xx2/0_acsr1/0_tpx seasons=1 ratings=[400] normamps=400 emergamps=600
new object=line.ln5503575-1 bus1=m1142839.1.2.3 bus2=m1142832.1.2.3 length=0.07299226 units=km linecode=3ph_h-397_acsr397_acsr397_acsr2/0_acsr seasons=1 ratings=[400] normamps=400 emergamps=600
new object=line.ln6018331-1 bus1=m1142832.1.2.3 bus2=l3160865.1.2.3 length=0.0670797 units=km linecode=3ph_h-397_acsr397_acsr397_acsr2/0_acsr seasons=1 ratings=[400] normamps=400 emergamps=600
new object=line.ln6291244-1 bus1=l3160865.1.2.3 bus2=m1142828.1.2.3 length=0.1306013 units=km linecode=3ph_h-397_acsr397_acsr397_acsr2/0_wpal seasons=1 ratings=[400] normamps=400 emergamps=600
new object=line.ln5473436-1 bus1=m1142828.1.2.3 bus2=l2674047.1.2.3 length=0.0003048 units=km linecode=3ph_h-397_acsr397_acsr397_acsr2/0_acsr seasons=1 ratings=[400] normamps=400 emergamps=600
new object=line.ln5473436-2 bus1=l2674047.1.2.3 bus2=l2692655.1.2.3 length=0.06085092 units=km linecode=3ph_h-397_acsr397_acsr397_acsr2/0_acsr seasons=1 ratings=[400] normamps=400 emergamps=600
new object=line.ln5896825-1 bus1=l2692655.1.2.3 bus2=m1142821.1.2.3 length=0.05352371 units=km linecode=3ph_h-397_acsr397_acsr397_acsr2/0_acsr seasons=1 ratings=[400] normamps=400 emergamps=600
new object=line.ln6351510-1 bus1=m1142821.1.2.3 bus2=l2711226.1.2.3 length=0.001633431 units=km linecode=3ph_h-4_acsr4_acsr4_acsr4_acsr seasons=1 ratings=[400] normamps=400 emergamps=600
new object=line.ln5654471-1 bus1=l2711226.1.2.3 bus2=m1142819.1.2.3 length=0.07816807 units=km linecode=3ph_h-397_acsr397_acsr397_acsr2/0_acsr seasons=1 ratings=[400] normamps=400 emergamps=600
new object=line.ln5625715-1 bus1=m1142819.2 bus2=m1142826.2 length=0.144772072 units=km linecode=1ph-x4_acsrx4_acsr seasons=1 ratings=[400] normamps=400 emergamps=600
new object=line.ln6018329-1 bus1=m1142826.2 bus2=l3160864.2 length=0.0913868 units=km linecode=1ph-x2_acsrx2_acsr seasons=1 ratings=[400] normamps=400 emergamps=600
new object=line.ln5654470-1 bus1=m1142826.2 bus2=m1125940.2 length=0.2866525 units=km linecode=1ph-x4_acsrx4_acsr seasons=1 ratings=[400] normamps=400 emergamps=600
new object=line.ln5957491-1 bus1=m1125940.2 bus2=l3048963.2 length=0.03355178 units=km linecode=1ph-x4_acsrx4_acsr seasons=1 ratings=[400] normamps=400 emergamps=600
new object=line.ln5775469-1 bus1=m1125940.2 bus2=l3254915.2 length=0.1775158 units=km linecode=1ph-x4_acsrx4_acsr seasons=1 ratings=[400] normamps=400 emergamps=600
new object=line.ln5745348-1 bus1=m1142819.1.2.3 bus2=m1142818.1.2.3 length=0.07498476 units=km linecode=3ph_h-397_acsr397_acsr397_acsr2/0_acsr seasons=1 ratings=[400] normamps=400 emergamps=600
new object=line.ln5504876-1 bus1=m1142818.1.2.3 bus2=l2936271.1.2.3 length=0.0953935 units=km linecode=3ph_h-4_acsr4_acsr4_acsr4_wpal seasons=1 ratings=[400] normamps=400 emergamps=600
new object=line.ln5927423-1 bus1=l2936271.1.2.3 bus2=m1142815.1.2.3 length=0.1395564 units=km linecode=3ph_h-4_acsr4_acsr4_acsr4_wpal seasons=1 ratings=[400] normamps=400 emergamps=600
new object=line.ln6291288-3 bus1=m1142815.1 bus2=l2879794.1 length=0.05252229 units=km linecode=1ph-4_acsrxx4_acsr seasons=1 ratings=[400] normamps=400 emergamps=600
new object=line.ln6109190-1 bus1=l2879794.1 bus2=m1142811.1 length=0.03375599 units=km linecode=1ph-4_acsrxx4_acsr seasons=1 ratings=[400] normamps=400 emergamps=600
new object=line.ln6321458-1 bus1=m1142811.1 bus2=l2917330.1 length=0.07959254 units=km linecode=1ph-4_acsrxx4_acsr seasons=1 ratings=[400] normamps=400 emergamps=600
new object=line.ln5654476-1 bus1=l2917330.1 bus2=l2861222.1 length=0.08953393 units=km linecode=1ph-4_acsrxx4_acsr seasons=1 ratings=[400] normamps=400 emergamps=600
new object=line.ln5745385-1 bus1=m1142811.1 bus2=l2992657.1 length=0.05154134 units=km linecode=1ph-2_acsrxx2_acsr seasons=1 ratings=[400] normamps=400 emergamps=600
new object=line.ln5684911-1 bus1=m1142815.1.2.3 bus2=m1142810.1.2.3 length=0.44835100000000006 units=km linecode=3ph_h-4_acsr4_acsr4_acsr4_acsr seasons=1 ratings=[400] normamps=400 emergamps=600
new object=line.ln5894225-1 bus1=m1142810.2 bus2=l3160868.2 length=0.11046987 units=km linecode=1ph-x2_acsrx2_acsr seasons=1 ratings=[400] normamps=400 emergamps=600
new object=line.ln6139649-1 bus1=l3160868.2 bus2=l3082988.2 length=0.02668804 units=km linecode=1ph-x2_acsrx2_acsr seasons=1 ratings=[400] normamps=400 emergamps=600
new object=line.ln6230797-1 bus1=l3082988.2 bus2=l2767409.2 length=0.13720636 units=km linecode=1ph-x2_acsrx2_acsr seasons=1 ratings=[400] normamps=400 emergamps=600
new object=line.ln6412352-1 bus1=l2767409.2 bus2=l3217064.2 length=0.46726019 units=km linecode=1ph-x2_acsrx2_acsr seasons=1 ratings=[400] normamps=400 emergamps=600
new object=line.ln6315098-1 bus1=l3217064.2 bus2=l3200222.2 length=0.229671 units=km linecode=1ph-x2_acsrx2_acsr seasons=1 ratings=[400] normamps=400 emergamps=600
new object=line.ln6048681-1 bus1=m1142815.1 bus2=l2917359.1 length=0.0181581 units=km linecode=1ph-2_acsrxx2_acsr seasons=1 ratings=[400] normamps=400 emergamps=600
new object=line.ln6200532-1 bus1=m1142818.1.2.3 bus2=l2955074.1.2.3 length=0.09315242 units=km linecode=3ph_h-397_acsr397_acsr397_acsr2/0_acsr seasons=1 ratings=[400] normamps=400 emergamps=600
new object=line.ln5594239-1 bus1=l2955074.1.2.3 bus2=l3030199.1.2.3 length=0.08915953 units=km linecode=3ph_h-397_acsr397_acsr397_acsr2/0_acsr seasons=1 ratings=[400] normamps=400 emergamps=600
new object=line.ln6078767-1 bus1=l3030199.1.2.3 bus2=l2730163.1.2.3 length=0.09267108 units=km linecode=3ph_h-397_acsr397_acsr397_acsr2/0_acsr seasons=1 ratings=[400] normamps=400 emergamps=600
new object=line.ln6200527-1 bus1=l2730163.1.2.3 bus2=l2992624.1.2.3 length=0.0845323 units=km linecode=3ph_h-397_acsr397_acsr397_acsr2/0_acsr seasons=1 ratings=[400] normamps=400 emergamps=600
new object=line.ln6170293-1 bus1=l2992624.1.2.3 bus2=m1125919.1.2.3 length=0.05105121 units=km linecode=3ph_h-397_acsr397_acsr397_acsr2/0_acsr seasons=1 ratings=[400] normamps=400 emergamps=600
new object=line.ln6171683-1 bus1=m1125919.1 bus2=l2692654.1 length=0.096721012 units=km linecode=1ph-2_acsrxx4_wpal seasons=1 ratings=[400] normamps=400 emergamps=600
new object=line.ln5957492-1 bus1=l2692654.1 bus2=m1125929.1 length=0.002372008 units=km linecode=1ph-2_acsrxx4_wpal seasons=1 ratings=[400] normamps=400 emergamps=600
new object=line.ln6018332-1 bus1=m1125929.1 bus2=l2842379.1 length=0.1610873 units=km linecode=1ph-2_acsrxx2_acsr seasons=1 ratings=[400] normamps=400 emergamps=600
new object=line.ln5745347-1 bus1=m1125919.1.2.3 bus2=m1125917.1.2.3 length=0.03999682 units=km linecode=3ph_h-397_acsr397_acsr397_acsr2/0_acsr seasons=1 ratings=[400] normamps=400 emergamps=600
new object=line.ln5957493-1 bus1=m1125917.1.2.3 bus2=m1125914.1.2.3 length=0.09095299 units=km linecode=3ph_h-397_acsr397_acsr397_acsr2/0_acsr seasons=1 ratings=[400] normamps=400 emergamps=600
new object=line.ln6078768-1 bus1=m1125914.1.2.3 bus2=l2917328.1.2.3 length=0.04200085 units=km linecode=3ph_h-397_acsr397_acsr397_acsr2/0_acsr seasons=1 ratings=[400] normamps=400 emergamps=600
new object=line.ln6351511-1 bus1=l2917328.1.2.3 bus2=l2861218.1.2.3 length=0.06460124 units=km linecode=3ph_h-397_acsr397_acsr397_acsr2/0_acsr seasons=1 ratings=[400] normamps=400 emergamps=600
new object=line.ln5958866-1 bus1=l2861218.1.2.3 bus2=d5958866-1_int.1.2.3 length=0.1593378 units=km linecode=3ph_h-397_acsr397_acsr397_acsr2/0_acsr seasons=1 ratings=[400] normamps=400 emergamps=600
new object=line.a8645_48332_sw bus1=d5958866-1_int.1.2.3 bus2=e183493.1.2.3 switch=true r1=1 x1=1 r0=1 x0=1 length=0.001
new object=line.ln6201850-1 bus1=e183493.1.2.3 bus2=m1125902.1.2.3 length=0.08925904 units=km linecode=3ph_h-397_acsr397_acsr397_acsr2/0_acsr seasons=1 ratings=[400] normamps=400 emergamps=600
new object=line.ln6291252-1 bus1=m1125902.1.2.3 bus2=l2955081.1.2.3 length=0.11780835 units=km linecode=3ph_h-397_acsr397_acsr397_acsr2/0_acsr seasons=1 ratings=[400] normamps=400 emergamps=600
new object=line.ln6018341-1 bus1=l2955081.1.2.3 bus2=m1108315.1.2.3 length=0.09468487 units=km linecode=3ph_h-397_acsr397_acsr397_acsr2/0_acsr seasons=1 ratings=[400] normamps=400 emergamps=600
new object=line.ln6351523-3 bus1=m1108315.3 bus2=m1108317.3 length=0.10749007399999999 units=km linecode=1ph-xx4_acsr4_acsr seasons=1 ratings=[400] normamps=400 emergamps=600
new object=line.ln5591814-1 bus1=m1108317.3 bus2=l2820590.3 length=0.06677156 units=km linecode=1ph-xx4_wpal4_wpal seasons=1 ratings=[400] normamps=400 emergamps=600
new object=line.ln5531334-1 bus1=l2820590.3 bus2=m1108328.3 length=0.05542785 units=km linecode=1ph-xx4_acsr4_acsr seasons=1 ratings=[400] normamps=400 emergamps=600
new object=line.ln5803287-1 bus1=m1108328.3 bus2=l2875754.3 length=0.02126716 units=km linecode=1ph-xx2_acsr2_acsr seasons=1 ratings=[400] normamps=400 emergamps=600
new object=line.ln6076248-1 bus1=m1108328.3 bus2=l2767414.3 length=0.03644873 units=km linecode=1ph-xx2_acsr2_acsr seasons=1 ratings=[400] normamps=400 emergamps=600
new object=line.ln6015795-1 bus1=l2767414.3 bus2=m1108331.3 length=0.1457019 units=km linecode=1ph-xx4_acsr4_acsr seasons=1 ratings=[400] normamps=400 emergamps=600
new object=line.ln6139655-1 bus1=m1108331.3 bus2=l2692664.3 length=0.13793449000000002 units=km linecode=1ph-xx4_acsr4_acsr seasons=1 ratings=[400] normamps=400 emergamps=600
new object=line.ln5712492-1 bus1=m1108331.3 bus2=l3045895.3 length=0.00203151 units=km linecode=1ph-xx4_acsr4_acsr seasons=1 ratings=[400] normamps=400 emergamps=600
new object=line.ln5712492-2 bus1=l3045895.3 bus2=l2935552.3 length=0.2421916 units=km linecode=1ph-xx4_acsr4_acsr seasons=1 ratings=[400] normamps=400 emergamps=600
new object=line.ln5896843-1 bus1=m1108331.3 bus2=m1108340.3 length=0.366033 units=km linecode=1ph-xx4_acsr4_acsr seasons=1 ratings=[400] normamps=400 emergamps=600
new object=line.ln5774452-1 bus1=m1108340.3 bus2=l2916605.3 length=0.01326065 units=km linecode=1ph-xx4_acsr4_acsr seasons=1 ratings=[400] normamps=400 emergamps=600
new object=line.ln5744333-1 bus1=m1108340.3 bus2=m1108344.3 length=0.06998185 units=km linecode=1ph-xx4_acsr4_acsr seasons=1 ratings=[400] normamps=400 emergamps=600
new object=line.ln5472349-1 bus1=m1108344.3 bus2=m1108353.3 length=0.1243743 units=km linecode=1ph-xx4_acsr4_acsr seasons=1 ratings=[400] normamps=400 emergamps=600
new object=line.ln5895772-1 bus1=m1108353.3 bus2=l3048205.3 length=0.08518323 units=km linecode=1ph-xx4_acsr4_wpal seasons=1 ratings=[400] normamps=400 emergamps=600
new object=line.ln5835174-1 bus1=l3048205.3 bus2=m1108361.3 length=0.1959342 units=km linecode=1ph-xx4_acsr4_wpal seasons=1 ratings=[400] normamps=400 emergamps=600
new object=line.ln6199558-1 bus1=m1108361.3 bus2=m1089155.3 length=0.1272712 units=km linecode=1ph-xx4_acsr4_wpal seasons=1 ratings=[400] normamps=400 emergamps=600
new object=line.ln5562921-1 bus1=m1089155.3 bus2=m1089158.3 length=0.1018298 units=km linecode=1ph-xx4_acsr4_wpal seasons=1 ratings=[400] normamps=400 emergamps=600
new object=line.ln5956459-1 bus1=m1089158.3 bus2=m1089162.3 length=0.1799297 units=km linecode=1ph-xx4_acsr4_acsr seasons=1 ratings=[400] normamps=400 emergamps=600
new object=line.ln6326286-1 bus1=m1089162.3 bus2=l2991640.3 length=0.1138175 units=km linecode=1ph-xx4_acsr4_acsr seasons=1 ratings=[400] normamps=400 emergamps=600
new object=line.ln6326286-2 bus1=l2991640.3 bus2=l3066807.3 length=0.27719068999999996 units=km linecode=1ph-xx4_acsr4_acsr seasons=1 ratings=[400] normamps=400 emergamps=600
new object=line.ln6320326-1 bus1=m1089162.3 bus2=l3197626.3 length=0.1080838 units=km linecode=1ph-xx4_acsr4_acsr seasons=1 ratings=[400] normamps=400 emergamps=600
new object=line.ln5472348-1 bus1=m1089162.3 bus2=m1089165.3 length=0.2579958 units=km linecode=1ph-xx4_acsr4_acsr seasons=1 ratings=[400] normamps=400 emergamps=600
new object=line.ln5926295-1 bus1=m1089165.3 bus2=l3216343.3 length=0.1530129 units=km linecode=1ph-xx4_acsr4_acsr seasons=1 ratings=[400] normamps=400 emergamps=600
new object=line.ln5985351-1 bus1=l3216343.3 bus2=l3082981.3 length=0.07445779 units=km linecode=1ph-xx4_acsr4_acsr seasons=1 ratings=[400] normamps=400 emergamps=600
new object=line.ln5985351-2 bus1=l3082981.3 bus2=m1108368.3 length=0.1594107 units=km linecode=1ph-xx4_acsr4_acsr seasons=1 ratings=[400] normamps=400 emergamps=600
new object=line.ln5926294-1 bus1=m1108368.3 bus2=l3085393.3 length=0.07035176 units=km linecode=1ph-xx4_acsr4_acsr seasons=1 ratings=[400] normamps=400 emergamps=600
new object=line.ln6290206-1 bus1=m1108368.3 bus2=l2897770.3 length=0.07038334 units=km linecode=1ph-xx2_acsr2_acsr seasons=1 ratings=[400] normamps=400 emergamps=600
new object=line.ln5562922-1 bus1=m1089165.3 bus2=l3197627.3 length=0.1267595 units=km linecode=1ph-xx4_acsr4_acsr seasons=1 ratings=[400] normamps=400 emergamps=600
new object=line.ln5804789-1 bus1=m1089165.3 bus2=l2748128.3 length=0.0430276 units=km linecode=1ph-xx4_acsr4_acsr seasons=1 ratings=[400] normamps=400 emergamps=600
new object=line.ln6320327-1 bus1=l2748128.3 bus2=m1089170.3 length=0.1739354 units=km linecode=1ph-xx4_acsr4_acsr seasons=1 ratings=[400] normamps=400 emergamps=600
new object=line.ln6320328-1 bus1=m1089170.3 bus2=l2879062.3 length=0.1700257 units=km linecode=1ph-xx4_acsr4_wpal seasons=1 ratings=[400] normamps=400 emergamps=600
new object=line.ln5956460-1 bus1=l2879062.3 bus2=m1089173.3 length=0.09017534 units=km linecode=1ph-xx4_acsr4_wpal seasons=1 ratings=[400] normamps=400 emergamps=600
new object=line.ln5532741-1 bus1=m1089173.3 bus2=l2935551.3 length=0.06085765 units=km linecode=1ph-xx4_wpal4_wpal seasons=1 ratings=[400] normamps=400 emergamps=600
new object=line.ln5746546-1 bus1=l2935551.3 bus2=d5746546-1_int.3 length=0.03204032 units=km linecode=1ph-xx4_wpal4_wpal seasons=1 ratings=[400] normamps=400 emergamps=600
new object=line.a333_48332_sw bus1=d5746546-1_int.3 bus2=e182723.3 switch=true r1=1 x1=1 r0=1 x0=1 length=0.001 phases=1
new object=line.ln5806917-1 bus1=e182723.3 bus2=m1089177.3 length=0.04925064 units=km linecode=1ph-xx4_wpal4_wpal seasons=1 ratings=[400] normamps=400 emergamps=600
new object=line.ln6199512-1 bus1=m1089177.3 bus2=l2729406.3 length=0.1377399 units=km linecode=1ph-xx4_acsr4_acsr seasons=1 ratings=[400] normamps=400 emergamps=600
new object=line.ln5804790-1 bus1=l2729406.3 bus2=l2897768.3 length=0.1947726 units=km linecode=1ph-xx4_acsr4_acsr seasons=1 ratings=[400] normamps=400 emergamps=600
new object=line.ln5865230-1 bus1=m1089177.3 bus2=l2822863.3 length=0.1338843 units=km linecode=1ph-xx4_wpal4_wpal seasons=1 ratings=[400] normamps=400 emergamps=600
new object=line.ln6380807-1 bus1=l2822863.3 bus2=m1089188.3 length=0.4450605 units=km linecode=1ph-xx4_wpal4_wpal seasons=1 ratings=[400] normamps=400 emergamps=600
new object=line.ln6229790-1 bus1=m1089188.3 bus2=l2841619.3 length=0.14567281999999998 units=km linecode=1ph-xx4_wpal4_wpal seasons=1 ratings=[400] normamps=400 emergamps=600
new object=line.ln6259985-1 bus1=l2841619.3 bus2=l2785515.3 length=0.1164721 units=km linecode=1ph-xx4_wpal4_wpal seasons=1 ratings=[400] normamps=400 emergamps=600
new object=line.ln5835132-1 bus1=m1089188.3 bus2=l2673306.3 length=0.07573053 units=km linecode=1ph-xx2_acsr2_acsr seasons=1 ratings=[400] normamps=400 emergamps=600
new object=line.ln5562923-1 bus1=m1089173.3 bus2=p827501.3 length=0.13565138 units=km linecode=1ph-xx4_acsr4_wpal seasons=1 ratings=[400] normamps=400 emergamps=600
new object=line.ln6231992-3 bus1=p827501.3 bus2=m1089176.3 length=0.130292131 units=km linecode=1ph-xx4_acsr4_acsr seasons=1 ratings=[400] normamps=400 emergamps=600
new object=line.ln6138600-1 bus1=m1089176.3 bus2=m1089179.3 length=0.06932616 units=km linecode=1ph-xx4_wpal4_wpal seasons=1 ratings=[400] normamps=400 emergamps=600
new object=line.ln5835133-1 bus1=m1089179.3 bus2=m1069451.3 length=0.1138171 units=km linecode=1ph-xx4_acsr4_wpal seasons=1 ratings=[400] normamps=400 emergamps=600
new object=line.ln5744369-1 bus1=m1069451.3 bus2=l2804282.3 length=0.2051895 units=km linecode=1ph-xx4_wpal4_acsr seasons=1 ratings=[400] normamps=400 emergamps=600
new object=line.ln5714075-1 bus1=l2804282.3 bus2=l3104154.3 length=0.08140065 units=km linecode=1ph-xx4_wpal4_acsr seasons=1 ratings=[400] normamps=400 emergamps=600
new object=line.ln5859993-1 bus1=l3104154.3 bus2=l3104155.3 length=0.04042317 units=km linecode=1ph-xx4_acsr4_acsr seasons=1 ratings=[400] normamps=400 emergamps=600
new object=line.ln5562961-1 bus1=l3104155.3 bus2=m1069456.3 length=0.06373798 units=km linecode=1ph-xx4_acsr4_acsr seasons=1 ratings=[400] normamps=400 emergamps=600
new object=line.ln6138635-1 bus1=m1069456.3 bus2=l2897806.3 length=0.06307009 units=km linecode=1ph-xx4_acsr4_acsr seasons=1 ratings=[400] normamps=400 emergamps=600
new object=line.ln5837361-7 bus1=m1069456.3 bus2=d5837361-8_int.3 length=0.02858668 units=km linecode=1ph-xx4_acsr4_acsr seasons=1 ratings=[400] normamps=400 emergamps=600
new object=line.ln5714045-1 bus1=m1089173.3 bus2=l2673307.3 length=0.08408768 units=km linecode=1ph-xx4_wpal4_wpal seasons=1 ratings=[400] normamps=400 emergamps=600
new object=line.ln5926293-1 bus1=m1089170.3 bus2=l3085392.3 length=0.07829454 units=km linecode=1ph-xx4_acsr4_acsr seasons=1 ratings=[400] normamps=400 emergamps=600
new object=line.ln5532740-1 bus1=m1089170.3 bus2=l3029497.3 length=0.04736166 units=km linecode=1ph-xx2_acsr2_acsr seasons=1 ratings=[400] normamps=400 emergamps=600
new object=line.ln6047559-2 bus1=m1089155.3 bus2=m3037540.3 length=0.07294583 units=km linecode=1ph-xx4_acsr4_acsr seasons=1 ratings=[400] normamps=400 emergamps=600
new object=line.ln6506318-4 bus1=m3037540.3 bus2=l2710509.3 length=0.003342785 units=km linecode=1ph-xx2_acsr2_acsr seasons=1 ratings=[400] normamps=400 emergamps=600
new object=line.ln6506319-2 bus1=l2710509.3 bus2=l2897766.3 length=0.19929325 units=km linecode=1ph-xx2_acsr2_acsr seasons=1 ratings=[400] normamps=400 emergamps=600
new object=line.ln5593220-2 bus1=m3037540.3 bus2=l2822862.3 length=0.05836295 units=km linecode=1ph-xx4_acsr4_acsr seasons=1 ratings=[400] normamps=400 emergamps=600
new object=line.ln5744329-1 bus1=l2822862.3 bus2=l3066806.3 length=0.06462783 units=km linecode=1ph-xx2_acsr2_acsr seasons=1 ratings=[400] normamps=400 emergamps=600
new object=line.ln6199510-1 bus1=m1089155.3 bus2=l2935550.3 length=0.07983021 units=km linecode=1ph-xx4_acsr4_acsr seasons=1 ratings=[400] normamps=400 emergamps=600
new object=line.ln5986961-1 bus1=m1108361.3 bus2=l3048228.3 length=0.03284099 units=km linecode=1ph-xx2_acsr2_acsr seasons=1 ratings=[400] normamps=400 emergamps=600
new object=line.ln6260030-1 bus1=l3048228.3 bus2=l2991940.3 length=0.09075313 units=km linecode=1ph-xx2_acsr2_acsr seasons=1 ratings=[400] normamps=400 emergamps=600
new object=line.ln5956462-1 bus1=m1108344.3 bus2=l2804250.3 length=0.03943133 units=km linecode=1ph-xx4_wpal1/0_tpx seasons=1 ratings=[400] normamps=400 emergamps=600
new object=line.ln5531326-1 bus1=l2804250.3 bus2=l2820583.3 length=0.06911756 units=km linecode=1ph-xx4_wpal4_wpal seasons=1 ratings=[400] normamps=400 emergamps=600
new object=line.ln5561521-1 bus1=l2820583.3 bus2=m1108350.3 length=0.23225596999999998 units=km linecode=1ph-xx4_acsr4_acsr seasons=1 ratings=[400] normamps=400 emergamps=600
new object=line.ln5715017-1 bus1=m1108350.3 bus2=l3198356.3 length=0.06933416 units=km linecode=1ph-xx2_acsr2_acsr seasons=1 ratings=[400] normamps=400 emergamps=600
new object=line.ln5805767-1 bus1=l3198356.3 bus2=m1108356.3 length=0.37070524 units=km linecode=1ph-xx2_acsr2_acsr seasons=1 ratings=[400] normamps=400 emergamps=600
new object=line.ln6139656-1 bus1=m1108356.3 bus2=l2842390.3 length=0.06943456 units=km linecode=1ph-xx2_acsr2_acsr seasons=1 ratings=[400] normamps=400 emergamps=600
new object=line.ln5503584-1 bus1=m1108356.3 bus2=l2674052.3 length=0.06235706 units=km linecode=1ph-xx2_acsr2_acsr seasons=1 ratings=[400] normamps=400 emergamps=600
new object=line.ln5833631-1 bus1=m1108350.3 bus2=l3048968.3 length=0.29276249 units=km linecode=1ph-xx4_acsr4_acsr seasons=1 ratings=[400] normamps=400 emergamps=600
new object=line.ln5653455-1 bus1=m1108340.3 bus2=l2822865.3 length=0.08600516 units=km linecode=1ph-xx4_acsr4_acsr seasons=1 ratings=[400] normamps=400 emergamps=600
new object=line.ln6411368-1 bus1=l2822865.3 bus2=l2916606.3 length=0.07735644 units=km linecode=1ph-xx4_acsr4_acsr seasons=1 ratings=[400] normamps=400 emergamps=600
new object=line.ln5744332-1 bus1=l2916606.3 bus2=l2822864.3 length=0.06169847 units=km linecode=1ph-xx4_acsr4_acsr seasons=1 ratings=[400] normamps=400 emergamps=600
new object=line.ln5956461-1 bus1=m1108340.3 bus2=l3085394.3 length=0.1024001 units=km linecode=1ph-xx4_acsr4_acsr seasons=1 ratings=[400] normamps=400 emergamps=600
new object=line.ln5621860-1 bus1=m1108328.3 bus2=l3160878.3 length=0.2087438 units=km linecode=1ph-xx4_acsr4_acsr seasons=1 ratings=[400] normamps=400 emergamps=600
new object=line.ln5745360-1 bus1=l3160878.3 bus2=l2917336.3 length=0.1946039 units=km linecode=1ph-xx4_acsr4_acsr seasons=1 ratings=[400] normamps=400 emergamps=600
new object=line.ln6291253-1 bus1=m1108315.1.2.3 bus2=m1108311.1.2.3 length=0.07220285 units=km linecode=3ph_h-397_acsr397_acsr397_acsr2/0_acsr seasons=1 ratings=[400] normamps=400 emergamps=600
new object=line.ln5896844-1 bus1=m1108311.3 bus2=l2898526.3 length=0.02467409 units=km linecode=1ph-xx2_acsr2_acsr seasons=1 ratings=[400] normamps=400 emergamps=600
new object=line.ln6170302-1 bus1=m1108311.1.2.3 bus2=l2879773.1.2.3 length=0.08882654 units=km linecode=3ph_h-397_acsr397_acsr397_acsr2/0_acsr seasons=1 ratings=[400] normamps=400 emergamps=600
new object=line.ln6321427-1 bus1=l2879773.1.2.3 bus2=m1108298.1.2.3 length=0.09267141 units=km linecode=3ph_h-397_acsr397_acsr397_acsr2/0_acsr seasons=1 ratings=[400] normamps=400 emergamps=600
new object=line.ln5531195-1 bus1=m1108298.1.2.3 bus2=196-36167.1.2.3 length=0.03926728 units=km linecode=3ph_h-397_acsr397_acsr397_acsr2/0_acsr seasons=1 ratings=[400] normamps=400 emergamps=600
new object=line.ln6106511-1 bus1=196-36167.1.2.3 bus2=l3011298.1.2.3 length=0.08155228 units=km linecode=3ph_h-4_acsr4_acsr4_acsr4_acsr seasons=1 ratings=[400] normamps=400 emergamps=600
new object=line.ln6351524-1 bus1=l3011298.1.2.3 bus2=m1108295.1.2.3 length=0.08015593 units=km linecode=3ph_h-4_acsr4_acsr4_acsr4_wpal seasons=1 ratings=[400] normamps=400 emergamps=600
new object=line.ln6109158-1 bus1=m1108295.1.2.3 bus2=l2936279.1.2.3 length=0.08373852 units=km linecode=3ph_h-4_acsr4_acsr4_acsr4_acsr seasons=1 ratings=[400] normamps=400 emergamps=600
new object=line.ln5473449-1 bus1=l2936279.1.2.3 bus2=l3179678.1.2.3 length=0.1017066 units=km linecode=3ph_h-4_acsr4_acsr4_acsr4_wpal seasons=1 ratings=[400] normamps=400 emergamps=600
new object=line.ln6079946-1 bus1=l3179678.1.2.3 bus2=l2804249.1.2.3 length=0.1177636 units=km linecode=3ph_h-4_acsr4_acsr4_acsr4_wpal seasons=1 ratings=[400] normamps=400 emergamps=600
new object=line.ln6256144-4 bus1=l2804249.1.2.3 bus2=l2688693.1.2.3 length=0.15603341999999998 units=km linecode=3ph_h-4_acsr4_acsr4_acsr4_wpal seasons=1 ratings=[400] normamps=400 emergamps=600
new object=line.ln6256144-1 bus1=l2688693.1.2.3 bus2=l2688692.1.2.3 length=0.03917884 units=km linecode=3ph_h-4_acsr4_acsr4_acsr4_wpal seasons=1 ratings=[400] normamps=400 emergamps=600
new object=line.ln5527400-1 bus1=l2688692.1.2.3 bus2=m1108286.1.2.3 length=0.005096697 units=km linecode=3ph_h-4_acsr4_acsr4_acsr4_wpal seasons=1 ratings=[400] normamps=400 emergamps=600
new object=line.ln5955063-1 bus1=m1108286.1.2.3 bus2=l2933164.1.2.3 length=0.07929255 units=km linecode=3ph_h-4_acsr4_acsr4_acsr4_acsr seasons=1 ratings=[400] normamps=400 emergamps=600
new object=line.ln6440069-1 bus1=l2933164.1.2.3 bus2=l3029498.1.2.3 length=0.06749109 units=km linecode=3ph_h-4_acsr4_acsr4_acsr4_wpal seasons=1 ratings=[400] normamps=400 emergamps=600
new object=line.ln5623403-1 bus1=l3029498.1.2.3 bus2=m1089143.1.2.3 length=0.0877134 units=km linecode=3ph_h-4_acsr4_acsr4_acsr4_acsr seasons=1 ratings=[400] normamps=400 emergamps=600
new object=line.ln5472361-1 bus1=m1089143.1 bus2=l3141400.1 length=0.09515786 units=km linecode=1ph-4_acsrxx4_acsr seasons=1 ratings=[400] normamps=400 emergamps=600
new object=line.ln5502533-1 bus1=m1089143.1.2.3 bus2=m1089141.1.2.3 length=0.1373578 units=km linecode=3ph_h-4_acsr4_acsr4_acsr4_acsr seasons=1 ratings=[400] normamps=400 emergamps=600
new object=line.ln5679773-1 bus1=m1089141.1 bus2=l2673316.1 length=0.025708062 units=km linecode=1ph-2_acsrxx2_acsr seasons=1 ratings=[400] normamps=400 emergamps=600
new object=line.ln6077777-1 bus1=l2673316.1 bus2=l2841628.1 length=0.15196428 units=km linecode=1ph-2_acsrxx2_acsr seasons=1 ratings=[400] normamps=400 emergamps=600
new object=line.ln6259995-1 bus1=m1089141.1.2.3 bus2=l3160107.1.2.3 length=0.1105514 units=km linecode=3ph_h-4_acsr4_acsr4_acsr2_wpal seasons=1 ratings=[400] normamps=400 emergamps=600
new object=line.ln6350541-1 bus1=l3160107.1.2.3 bus2=l3104125.1.2.3 length=0.1078279 units=km linecode=3ph_h-4_acsr4_acsr4_acsr4_wpal seasons=1 ratings=[400] normamps=400 emergamps=600
new object=line.ln5502531-1 bus1=l3104125.1.2.3 bus2=m1089131.1.2.3 length=0.0382469 units=km linecode=3ph_h-4_acsr4_acsr4_acsr4_wpal seasons=1 ratings=[400] normamps=400 emergamps=600
new object=line.ln6409869-1 bus1=m1089131.1 bus2=l3270854.1 length=0.05049828 units=km linecode=1ph-4_acsrxx4_acsr seasons=1 ratings=[400] normamps=400 emergamps=600
...
new object=transformer.vreg4_a phases=1 windings=2 xhl=0.1 %loadloss=0.01 buses=[regxfmr_190-7361.1,190-7361.1] conns=[wye,wye] kvs=[7.2,7.2] kvas=[10000,10000] taps=[1,1.075] maxtap=1.1 mintap=0.9 ppm_antifloat=0
new object=regcontrol.vreg4_a transformer=vreg4_a winding=2 tapwinding=2 vreg=125 ptratio=60 band=2
new object=transformer.vreg4_b phases=1 windings=2 xhl=0.1 %loadloss=0.01 buses=[regxfmr_190-7361.2,190-7361.2] conns=[wye,wye] kvs=[7.2,7.2] kvas=[10000,10000] taps=[1,1.075] maxtap=1.1 mintap=0.9 ppm_antifloat=0
new object=regcontrol.vreg4_b transformer=vreg4_b winding=2 tapwinding=2 vreg=125 ptratio=60 band=2
new object=transformer.vreg4_c phases=1 windings=2 xhl=0.1 %loadloss=0.01 buses=[regxfmr_190-7361.3,190-7361.3] conns=[wye,wye] kvs=[7.2,7.2] kvas=[10000,10000] taps=[1,1.03125] maxtap=1.1 mintap=0.9 ppm_antifloat=0
new object=regcontrol.vreg4_c transformer=vreg4_c winding=2 tapwinding=2 vreg=125 ptratio=60 band=2
new object=transformer.vreg3_a phases=1 windings=2 xhl=0.1 %loadloss=0.01 buses=[regxfmr_190-8581.1,190-8581.1] conns=[wye,wye] kvs=[7.2,7.2] kvas=[10000,10000] taps=[1,1.1] maxtap=1.1 mintap=0.9 ppm_antifloat=0
new object=regcontrol.vreg3_a transformer=vreg3_a winding=2 tapwinding=2 vreg=125 ptratio=60 band=2
new object=transformer.vreg2_a phases=1 windings=2 xhl=0.1 %loadloss=0.01 buses=[regxfmr_190-8593.1,190-8593.1] conns=[wye,wye] kvs=[7.2,7.2] kvas=[10000,10000] taps=[1,1.06875] maxtap=1.1 mintap=0.9 ppm_antifloat=0
new object=regcontrol.vreg2_a transformer=vreg2_a winding=2 tapwinding=2 vreg=125 ptratio=60 band=2
new object=transformer.vreg2_b phases=1 windings=2 xhl=0.1 %loadloss=0.01 buses=[regxfmr_190-8593.2,190-8593.2] conns=[wye,wye] kvs=[7.2,7.2] kvas=[10000,10000] taps=[1,1.04375] maxtap=1.1 mintap=0.9 ppm_antifloat=0
new object=regcontrol.vreg2_b transformer=vreg2_b winding=2 tapwinding=2 vreg=125 ptratio=60 band=2
new object=transformer.vreg2_c phases=1 windings=2 xhl=0.1 %loadloss=0.01 buses=[regxfmr_190-8593.3,190-8593.3] conns=[wye,wye] kvs=[7.2,7.2] kvas=[10000,10000] taps=[1,1.00625] maxtap=1.1 mintap=0.9 ppm_antifloat=0
new object=regcontrol.vreg2_c transformer=vreg2_c winding=2 tapwinding=2 vreg=125 ptratio=60 band=2
new object=transformer.vreg3_b phases=1 windings=2 xhl=0.1 %loadloss=0.01 buses=[regxfmr_190-8581.2,190-8581.2] conns=[wye,wye] kvs=[7.2,7.2] kvas=[10000,10000] taps=[1,1.0625] maxtap=1.1 mintap=0.9 ppm_antifloat=0
new object=regcontrol.vreg3_b transformer=vreg3_b winding=2 tapwinding=2 vreg=125 ptratio=60 band=2
new object=transformer.vreg3_c phases=1 windings=2 xhl=0.1 %loadloss=0.01 buses=[regxfmr_190-8581.3,190-8581.3] conns=[wye,wye] kvs=[7.2,7.2] kvas=[10000,10000] taps=[1,1.00625] maxtap=1.1 mintap=0.9 ppm_antifloat=0
new object=regcontrol.vreg3_c transformer=vreg3_c winding=2 tapwinding=2 vreg=125 ptratio=60 band=2
new object=load.226195333c0a phases=1 bus1=l2801909.3 kv=7.2 status=variable model=1 conn=wye kw=4.2055411750000005 pf=0.97 vminpu=0.88 daily=default
new object=load.223658a0a phases=1 bus1=l2823592.1 kv=7.2 status=variable model=1 conn=wye kw=1.8289454250000037 pf=0.97 vminpu=0.88 daily=default
new object=load.218472a0a phases=1 bus1=l2936270.1 kv=7.2 status=variable model=1 conn=wye kw=9.165393174999998 pf=0.97 vminpu=0.88 daily=default
new object=load.218473a0a phases=1 bus1=l3086078.1 kv=7.2 status=variable model=1 conn=wye kw=9.165393175 pf=0.97 vminpu=0.88 daily=default
new object=load.218474a0a phases=1 bus1=l3217056.1 kv=7.2 status=variable model=1 conn=wye kw=18.330786350000018 pf=0.97 vminpu=0.88 daily=default
new object=load.218475a0a phases=1 bus1=l3217057.1 kv=7.2 status=variable model=1 conn=wye kw=3.668223875 pf=0.97 vminpu=0.88 daily=default
new object=load.21386877a0a phases=1 bus1=l2823611.1 kv=7.2 status=variable model=1 conn=wye kw=5.497169299999996 pf=0.97 vminpu=0.88 daily=default
new object=load.20107636a0a phases=1 bus1=l3030204.1 kv=7.2 status=variable model=1 conn=wye kw=9.165393174999998 pf=0.97 vminpu=0.88 daily=default
new object=load.21390038c0a phases=1 bus1=l3030205.3 kv=7.2 status=variable model=1 conn=wye kw=10.508686424999999 pf=0.97 vminpu=0.88 daily=default
new object=load.260620c0a phases=1 bus1=l3067506.3 kv=7.2 status=variable model=1 conn=wye kw=4.205541174999997 pf=0.97 vminpu=0.88 daily=default
new object=load.260621c0a phases=1 bus1=l2898515.3 kv=7.2 status=variable model=1 conn=wye kw=10.508686424999999 pf=0.97 vminpu=0.88 daily=default
new object=load.260622c0a phases=1 bus1=l3198347.3 kv=7.2 status=variable model=1 conn=wye kw=6.303145249999999 pf=0.97 vminpu=0.88 daily=default
new object=load.260624c0a phases=1 bus1=l3048946.3 kv=7.2 status=variable model=1 conn=wye kw=6.30314525 pf=0.97 vminpu=0.88 daily=default
new object=load.260625c0a phases=1 bus1=l3048966.3 kv=7.2 status=variable model=1 conn=wye kw=6.303145249999998 pf=0.97 vminpu=0.88 daily=default
new object=load.21474556a0a phases=1 bus1=l3086098.1 kv=7.2 status=variable model=1 conn=wye kw=18.33078635000003 pf=0.97 vminpu=0.88 daily=default
new object=load.260630b0a phases=1 bus1=l2973833.2 kv=7.2 status=variable model=1 conn=wye kw=6.034486600000003 pf=0.97 vminpu=0.88 daily=default
new object=load.260631a0a phases=1 bus1=l2786266.1 kv=7.2 status=variable model=1 conn=wye kw=5.4971692999999995 pf=0.97 vminpu=0.88 daily=default
new object=load.260632a0a phases=1 bus1=l2917333.1 kv=7.2 status=variable model=1 conn=wye kw=9.165393175 pf=0.97 vminpu=0.88 daily=default
new object=load.260634a0a phases=1 bus1=l2842383.1 kv=7.2 status=variable model=1 conn=wye kw=5.497169299999997 pf=0.97 vminpu=0.88 daily=default
new object=load.260637c0a phases=1 bus1=l2842384.3 kv=7.2 status=variable model=1 conn=wye kw=4.205541175 pf=0.97 vminpu=0.88 daily=default
new object=load.260647a0a phases=1 bus1=l2805034.1 kv=7.2 status=variable model=1 conn=wye kw=3.668223875 pf=0.97 vminpu=0.88 daily=default
new object=load.260641b0a phases=1 bus1=l3048965.2 kv=7.2 status=variable model=1 conn=wye kw=15.075883475000001 pf=0.97 vminpu=0.88 daily=default
new object=load.225700953a0a phases=1 bus1=l3081380.1 kv=7.2 status=variable model=1 conn=wye kw=5.4971693 pf=0.97 vminpu=0.88 daily=default
new object=load.260535c0a phases=1 bus1=l3067507.3 kv=7.2 status=variable model=1 conn=wye kw=15.76819614999997 pf=0.97 vminpu=0.88 daily=default
new object=load.260515a0a phases=1 bus1=l3160865.1 kv=7.2 status=variable model=1 conn=wye kw=9.165393174999998 pf=0.97 vminpu=0.88 daily=default
new object=load.260514c0a phases=1 bus1=l2674047.3 kv=7.2 status=variable model=1 conn=wye kw=6.303145249999989 pf=0.97 vminpu=0.88 daily=default
new object=load.21389307c0a phases=1 bus1=l2692655.3 kv=7.2 status=variable model=1 conn=wye kw=10.508686424999999 pf=0.97 vminpu=0.88 daily=default
new object=load.260527b0a phases=1 bus1=l2711226.2 kv=7.2 status=variable model=1 conn=wye kw=10.054033324999999 pf=0.97 vminpu=0.88 daily=default
new object=load.2127146b0a phases=1 bus1=l3160864.2 kv=7.2 status=variable model=1 conn=wye kw=6.034486599999999 pf=0.97 vminpu=0.88 daily=default
new object=load.260521b0a phases=1 bus1=l3048963.2 kv=7.2 status=variable model=1 conn=wye kw=6.034486599999999 pf=0.97 vminpu=0.88 daily=default
new object=load.260520b0a phases=1 bus1=l3254915.2 kv=7.2 status=variable model=1 conn=wye kw=2.014939874999997 pf=0.97 vminpu=0.88 daily=default
new object=load.260476a0a phases=1 bus1=l2936271.1 kv=7.2 status=variable model=1 conn=wye kw=5.4971692999999995 pf=0.97 vminpu=0.88 daily=default
new object=load.260475a0a phases=1 bus1=l2879794.1 kv=7.2 status=variable model=1 conn=wye kw=13.742923249999999 pf=0.97 vminpu=0.88 daily=default
new object=load.260474a0a phases=1 bus1=l2917330.1 kv=7.2 status=variable model=1 conn=wye kw=9.165393175000004 pf=0.97 vminpu=0.88 daily=default
...